/*--------------------------------*- C++ -*----------------------------------*\
| =========                 |                                                 |
| \\      /  F ield         | OpenFOAM: The Open Source CFD Toolbox           |
|  \\    /   O peration     | Version:  v2006                                 |
|   \\  /    A nd           | Website:  www.openfoam.com                      |
|    \\/     M anipulation  |                                                 |
\*---------------------------------------------------------------------------*/
FoamFile
{
    version     2.0;
    format      ascii;
    class       polyBoundaryMesh;
    location    "constant/polyMesh";
    object      boundary;
}
// * * * * * * * * * * * * * * * * * * * * * * * * * * * * * * * * * * * * * //

10
(
    inlet
    {
        type            patch;
        nFaces          32;
        startFace       9820;
    }
    pre_inlet_bottom
    {
        type            patch;
        nFaces          2;
        startFace       9852;
    }
    pre_inlet_top
    {
        type            patch;
        nFaces          2;
        startFace       9854;
    }
    post_inlet_bottom
    {
        type            wall;
        inGroups        1(wall);
        nFaces          42;
        startFace       9856;
    }
    step
    {
        type            wall;
        inGroups        1(wall);
        nFaces          24;
        startFace       9898;
    }
    left
    {
        type            cyclic;
        neighbourPatch  right;
        nFaces          4992;
        startFace       9922;
    }
    right
    {
        type            cyclic;
        neighbourPatch  left;
        nFaces          4992;
        startFace       14914;
    }
    bottom_wall
    {
        type            wall;
        inGroups        1(wall);
        nFaces          64;
        startFace       19906;
    }
    post_inlet_top
    {
        type            wall;
        inGroups        1(wall);
        nFaces          106;
        startFace       19970;
    }
    outlet
    {
        type            patch;
        nFaces          56;
        startFace       20076;
    }
)

// ************************************************************************* //
