/*--------------------------------*- C++ -*----------------------------------*\
| =========                 |                                                 |
| \\      /  F ield         | OpenFOAM: The Open Source CFD Toolbox           |
|  \\    /   O peration     | Version:  v2006                                 |
|   \\  /    A nd           | Website:  www.openfoam.com                      |
|    \\/     M anipulation  |                                                 |
\*---------------------------------------------------------------------------*/
FoamFile
{
    version     2.0;
    format      ascii;
    class       dictionary;
    object      blockMeshDict;
}

// * * * * * * * * * * * * * * * * * * * * * * * * * * * * * * * * * * * * * //

scale   1;

vertices
(
    (-5  -5  0)
    ( 10 -5  0)
    ( 10  5  0)
    (-5   5  0)
    (-5  -5  1)
    ( 10 -5  1)
    ( 10  5  1)
    (-5   5  1)
);

blocks
(
    hex (0 1 2 3 4 5 6 7) (15 10 1) simpleGrading (1 1 1)
);

edges
(
);

boundary
(
    symmetry
    {
        type patch;
        faces
        (
            (1 5 4 0)
            (3 7 6 2)
        );
    }
    inlet
    {
        type patch;
        faces
        (
            (0 4 7 3)
        );
    }
    outlet
    {
        type patch;
        faces
        (
            (2 6 5 1)
        );
    }
    right
    {
        type            cyclic;
        neighbourPatch  left;
        faces
        (
            (4 5 6 7)
        );
    }
    left
    {
        type            cyclic;
        neighbourPatch  right;
        faces
        (
            (0 3 2 1)
        );
    }
);

// ************************************************************************* //
