/*--------------------------------*- C++ -*----------------------------------*\
| =========                 |                                                 |
| \\      /  F ield         | OpenFOAM: The Open Source CFD Toolbox           |
|  \\    /   O peration     | Version:  v2212                                 |
|   \\  /    A nd           | Web:      www.OpenFOAM.com                      |
|    \\/     M anipulation  |                                                 |
|                                                                             |
| This file was automatically generated using the OpenFOAMCaseGenerator       |
| see https://github.com/tomrobin-teschner/OpenFOAMCaseGenerator              |
|                                                                             |
\*---------------------------------------------------------------------------*/

FoamFile
{
    version     2.0;
    format      ascii;
    class       dictionary;
    location    "constant";
    object      turbulenceProperties;
}

// * * * * * * * * * * * * * * * * * * * * * * * * * * * * * * * * * * * * * //

simulationType LES;

LES
{
    LESModel        dynamicLagrangian;

    turbulence      on;

    printCoeffs     on;

    filter          simple;

    delta           cubeRootVol;

    cubeRootVolCoeffs
    {
        deltaCoeff        1;
    }

    PrandtlCoeffs
    {
        delta           cubeRootVol;
        cubeRootVolCoeffs
        {
            deltaCoeff      1;
        }

        smoothCoeffs
        {
            delta           cubeRootVol;
            cubeRootVolCoeffs
            {
                deltaCoeff      1;
            }

            maxDeltaRatio   1.1;
        }

        Cdelta          0.158;
    }

    vanDriestCoeffs
    {
        delta           cubeRootVol;
        cubeRootVolCoeffs
        {
            deltaCoeff      1;
        }

        smoothCoeffs
        {
            delta           cubeRootVol;
            cubeRootVolCoeffs
            {
                deltaCoeff      1;
            }

            maxDeltaRatio   1.1;
        }

        Aplus           26;
        Cdelta          0.158;
    }

    smoothCoeffs
    {
        delta           cubeRootVol;
        cubeRootVolCoeffs
        {
            deltaCoeff      1;
        }

        maxDeltaRatio   1.1;
    }
}


// ************************************************************************* //
