/*--------------------------------*- C++ -*----------------------------------*\
| =========                 |                                                 |
| \\      /  F ield         | OpenFOAM: The Open Source CFD Toolbox           |
|  \\    /   O peration     | Version:  v2006                                 |
|   \\  /    A nd           | Website:  www.openfoam.com                      |
|    \\/     M anipulation  |                                                 |
\*---------------------------------------------------------------------------*/
FoamFile
{
    version     2.0;
    format      ascii;
    class       dictionary;
    object      blockMeshDict;
}

// * * * * * * * * * * * * * * * * * * * * * * * * * * * * * * * * * * * * * //

scale   1;

vertices
(
    (-5  0  -0.30)
    ( 15 0  -0.30)
    ( 15 10 -0.30)
    (-5  10 -0.30)
    (-5  0   7.70)
    ( 15 0   7.70)
    ( 15 10  7.70)
    (-5  10  7.70)
);

blocks
(
    hex (0 1 2 3 4 5 6 7) (20 10 8) simpleGrading (1 1 1)
);

edges
(
);

boundary
(
    symmetry
    {
        type patch;
        faces
        (
            (1 5 4 0)
            (3 7 6 2)
        );
    }
    road
    {
        type patch;
        faces
        (
            (0 3 2 1)
        );
    }
    sky
    {
        type patch;
        faces
        (
            (4 5 6 7)
        );
    }
    inlet
    {
        type patch;
        faces
        (
            (0 4 7 3)
        );
    }
    outlet
    {
        type patch;
        faces
        (
            (2 6 5 1)
        );
    }
);

// ************************************************************************* //
