FoamFile
{
    version     2.0;
    format      ascii;
    class       polyBoundaryMesh;
    location    "constant/polyMesh";
    object      boundary;
}

3         
(
    BaseAndTop
    {
        type empty;
        nFaces 114688;
        startFace 114208;
    }
    airfoil
    {
        type wall;
        nFaces 256;
        startFace 228896;
    }
    farfield
    {
        type patch;
        nFaces 704;
        startFace 229152;
    }
)
