FoamFile
{
    version     2.0;
    format      ascii;
    class       polyBoundaryMesh;
    location    "constant/polyMesh";
    object      boundary;
}

3         
(
    airfoil
    {
        type wall;
        nFaces 422;
        startFace 108287;
    }
    farfield
    {
        type patch;
        nFaces 25;
        startFace 108709;
    }
    BaseAndTop
    {
        type empty;
        nFaces 130614;
        startFace 108734;
    }
)
