FoamFile
{
    version     2.0;
    format      ascii;
    class       polyBoundaryMesh;
    location    "constant/polyMesh";
    object      boundary;
}

6         
(
    inlet
    {
        type patch;
        nFaces 152;
        startFace 48622;
    }
    lower
    {
        type wall;
        nFaces 149;
        startFace 48774;
    }
    outlet
    {
        type patch;
        nFaces 170;
        startFace 48923;
    }
    trailingEdge
    {
        type wall;
        nFaces 24;
        startFace 49093;
    }
    upper
    {
        type wall;
        nFaces 149;
        startFace 49117;
    }
    BaseAndTop
    {
        type empty;
        nFaces 48944;
        startFace 49266;
    }
)
