/*--------------------------------*- C++ -*----------------------------------*\
| =========                 |                                                 |
| \\      /  F ield         | OpenFOAM: The Open Source CFD Toolbox           |
|  \\    /   O peration     | Version:  v2212                                 |
|   \\  /    A nd           | Website:  www.openfoam.com                      |
|    \\/     M anipulation  |                                                 |
\*---------------------------------------------------------------------------*/
FoamFile
{
    version     2.0;
    format      ascii;
    class       dictionary;
    object      blockMeshDict;
}

// * * * * * * * * * * * * * * * * * * * * * * * * * * * * * * * * * * * * * //

scale   1;

vertices
(
    (-10 -10  0 )
    ( 20 -10  0 )
    ( 20  10  0 )
    (-10  10  0 )
    (-10 -10 -20)
    ( 20 -10 -20)
    ( 20  10 -20)
    (-10  10 -20)
);

blocks
(
    hex (4 5 6 7 0 1 2 3 ) (30 20 20) simpleGrading (1 1 1)
);

edges
(
);

boundary
(
    symmetry
    {
        type patch;
        faces
        (
            (1 5 4 0)
            (3 7 6 2)
            (0 3 2 1)
            (4 5 6 7)
        );
    }
    inlet
    {
        type patch;
        faces
        (
            (0 4 7 3)
        );
    }
    outlet
    {
        type patch;
        faces
        (
            (2 6 5 1)
        );
    }
);

// ************************************************************************* //
