/*--------------------------------*- C++ -*----------------------------------*\
| =========                 |                                                 |
| \\      /  F ield         | OpenFOAM: The Open Source CFD Toolbox           |
|  \\    /   O peration     | Version:  v2006                                 |
|   \\  /    A nd           | Website:  www.openfoam.com                      |
|    \\/     M anipulation  |                                                 |
\*---------------------------------------------------------------------------*/
FoamFile
{
    version     2.0;
    format      ascii;
    class       polyBoundaryMesh;
    location    "constant/polyMesh";
    object      boundary;
}
// * * * * * * * * * * * * * * * * * * * * * * * * * * * * * * * * * * * * * //

5
(
    farfield
    {
        type            patch;
        nFaces          128;
        startFace       28432;
    }
    BaseAndTop
    {
        type            empty;
        nFaces          14336;
        startFace       28560;
    }
    BaseAndTop
    {
        type            empty;
        nFaces          14336;
        startFace       42896;
    }
    airfoil
    {
        type            wall;
        nFaces          128;
        startFace       57232;
    }
    farfield
    {
        type            patch;
        nFaces          224;
        startFace       57360;
    }
)

// ************************************************************************* //
