FoamFile
{
    version     2.0;
    format      ascii;
    class       polyBoundaryMesh;
    location    "constant/polyMesh";
    object      boundary;
}

3         
(
    BaseAndTop
    {
        type empty;
        nFaces 7168;
        startFace 7048;
    }
    airfoil
    {
        type wall;
        nFaces 64;
        startFace 14216;
    }
    farfield
    {
        type patch;
        nFaces 176;
        startFace 14280;
    }
)
